@<TRIPOS>MOLECULE
carboxylic acid
   4    3    0    0    0
SMALL
NO_CHARGES


@<TRIPOS>ATOM
   1 C1            -0.0127     1.0858     0.0080 C.3
   2 C2            -0.7181     1.5718     1.2479 C.2
   3 O3            -0.8566     2.8886     1.4687 O.3
   4 O4            -1.1590     0.7762     2.0432 O.2
@<TRIPOS>BOND
   1    1    2 1
   2    2    3 1
   3    2    4 2
