@<TRIPOS>MOLECULE
carboxylic acid
 4 3 0 0 0
SMALL
GASTEIGER

@<TRIPOS>ATOM
      1 C           0.0000    0.0000    0.0000 C.3     1  UNL1        0.0331
      2 C           0.0000    0.0000    0.0000 C.2     1  UNL1        0.3016
      3 O           0.0000    0.0000    0.0000 O.3     1  UNL1       -0.4808
      4 O           0.0000    0.0000    0.0000 O.2     1  UNL1       -0.2513
@<TRIPOS>BOND
     1     1     2    1
     2     2     3    1
     3     2     4    2
