@<TRIPOS>MOLECULE
carboxylate
 4 3 0 0 0
SMALL
GASTEIGER

@<TRIPOS>ATOM
      1 C           0.0000    0.0000    0.0000 C.3     1  UNL1        0.1258
      2 C           0.0000    0.0000    0.0000 C.2     1  UNL1        0.3654
      3 O           0.0000    0.0000    0.0000 O.co2   1  UNL1       -0.2456
      4 O           0.0000    0.0000    0.0000 O.co2   1  UNL1       -0.2456
@<TRIPOS>BOND
     1     1     2    1
     2     2     3   ar
     3     2     4   ar
