@<TRIPOS>MOLECULE
quaternary ammonium salt
 5 4 0 0 0
SMALL
GASTEIGER

@<TRIPOS>ATOM
      1 C           0.0000    0.0000    0.0000 C.3     1  UNL1        0.1712
      2 N           0.0000    0.0000    0.0000 N.4     1  UNL1        0.3151
      3 C           0.0000    0.0000    0.0000 C.3     1  UNL1        0.1712
      4 C           0.0000    0.0000    0.0000 C.3     1  UNL1        0.1712
      5 C           0.0000    0.0000    0.0000 C.3     1  UNL1        0.1712
@<TRIPOS>BOND
     1     1     2    1
     2     2     3    1
     3     2     4    1
     4     2     5    1
