@<TRIPOS>MOLECULE
quaternary ammonium salt
   5    4    0    0    0
SMALL
NO_CHARGES


@<TRIPOS>ATOM
   1 C1             0.0021    -0.0041     0.0020 C.3
   2 N2            -0.0178     1.4648     0.0101 N.4
   3 C3             1.3603     1.9732    -0.0003 C.3
   4 C4            -0.7283     1.9514    -1.1800 C.3
   5 C5            -0.7054     1.9385     1.2187 C.3
@<TRIPOS>BOND
   1    1    2 1
   2    2    3 1
   3    2    4 1
   4    2    5 1
