@<TRIPOS>MOLECULE
guadinium-like
  7   6    0    0    0
SMALL
NO_CHARGES


@<TRIPOS>ATOM
   1 N1             1.1391     3.0624    -0.0827 N.pl3
   2 C2            -0.0145     3.6922     0.1261 C.cat
   3 N3            -0.8308     3.3054     1.1618 N.pl3
   4 C4            -0.3907     2.3758     2.0732 C.cat
   5 N5            -1.2588     1.7768     2.8847 N.pl3
   6 N6             0.9036     2.0745     2.1443 N.pl3
   7 N9            -0.3776     4.6964    -0.6680 N.pl3
@<TRIPOS>BOND
   1    1    2 ar
   2    2    3 ar
   3    2    7 ar
   4    3    4 ar
   5    4    5 ar
   6    4    6 ar

#	End of record
#	Name: NoName

#	Program:	corina 4.4.0 0026  12.08.2021
