#	Program:	corina 4.4.0 0026  12.08.2021

@<TRIPOS>MOLECULE
imidazole
   5    5    0    0    0
SMALL
NO_CHARGES


@<TRIPOS>ATOM
   1 N1             0.0021    -0.0041     0.0020 N.pl3
   2 C3            -0.0165     1.3646     0.0095 C.2
   3 C4             1.2671     1.7717    -0.0005 C.2
   4 N5             2.0482     0.6814    -0.0138 N.2
   5 C6             1.2973    -0.3859    -0.0124 C.2
@<TRIPOS>BOND
   1    1    5 1
   2    1    2 1
   3    2    3 2
   4    3    4 1
   5    4    5 2
#	End of record
