@<TRIPOS>MOLECULE
indole
 9 10 0 0 0
SMALL
GASTEIGER

@<TRIPOS>ATOM
      1 C           0.0000    0.0000    0.0000 C.ar    1  UNL1        0.0192
      2 C           0.0000    0.0000    0.0000 C.ar    1  UNL1        0.0015
      3 C           0.0000    0.0000    0.0000 C.ar    1  UNL1        0.0001
      4 C           0.0000    0.0000    0.0000 C.ar    1  UNL1        0.0015
      5 C           0.0000    0.0000    0.0000 C.ar    1  UNL1        0.0191
      6 C           0.0000    0.0000    0.0000 C.ar    1  UNL1        0.0814
      7 N           0.0000    0.0000    0.0000 N.ar    1  UNL1       -0.2438
      8 C           0.0000    0.0000    0.0000 C.ar    1  UNL1        0.0989
      9 C           0.0000    0.0000    0.0000 C.ar    1  UNL1        0.0221
@<TRIPOS>BOND
     1     1     2   ar
     2     2     3   ar
     3     3     4   ar
     4     4     5   ar
     5     5     6   ar
     6     1     6   ar
     7     6     7   ar
     8     7     8   ar
     9     8     9   ar
    10     1     9   ar
