@<TRIPOS>MOLECULE
indole
   9   10    0    0    0
SMALL
NO_CHARGES


@<TRIPOS>ATOM
   1 C1            -0.6876     3.2303     0.0251 C.ar
   2 C2            -1.3581     4.4545     0.0376 C.ar
   3 C3            -0.6436     5.6195     0.0369 C.ar
   4 C4             0.7440     5.5954     0.0233 C.ar
   5 C5             1.4261     4.3982     0.0109 C.ar
   6 C6             0.7191     3.2004     0.0119 C.ar
   7 N7             1.0971     1.8764     0.0017 N.pl3
   8 C8            -0.0126     1.0758     0.0080 C.2
   9 C9            -1.1221     1.8313     0.0168 C.2
@<TRIPOS>BOND
   1    1    6 ar
   2    1    9 1
   3    1    2 ar
   4    2    3 ar
   5    3    4 ar
   6    4    5 ar
   7    5    6 ar
   8    6    7 1
   9    7    8 1
  10    8    9 2

#	End of record
