@<TRIPOS>MOLECULE
nitrobenzene
   9    9    0    0    0
SMALL
NO_CHARGES


@<TRIPOS>ATOM
   1 O1             2.4833    -0.1572    -0.0217 O.2
   2 N2             2.4668     1.0606    -0.0154 N.pl3
   3 C3             1.1750     1.7832     0.0004 C.ar
   4 C4            -0.0126     1.0758     0.0080 C.ar
   5 C5            -1.2190     1.7506     0.0173 C.ar
   6 C6            -1.2377     3.1328     0.0290 C.ar
   7 C7            -0.0501     3.8402     0.0223 C.ar
   8 C8             1.1563     3.1654     0.0081 C.ar
   9 O9             3.5132     1.6839    -0.0220 O.2
@<TRIPOS>BOND
   1    1    2 ar
   2    2    3 1
   3    2    9 ar
   4    3    8 ar
   5    3    4 ar
   6    4    5 ar
   7    5    6 ar
   8    6    7 ar
   9    7    8 ar

#	End of record
