@<TRIPOS>MOLECULE
nitrobenzene
 9 9 0 0 0
SMALL
GASTEIGER

@<TRIPOS>ATOM
      1 O           0.0000    0.0000    0.0000 O.2     1  UNL1        0.0415
      2 N           0.0000    0.0000    0.0000 N.pl3   1  UNL1        0.0809
      3 C           0.0000    0.0000    0.0000 C.ar    1  UNL1        0.2901
      4 C           0.0000    0.0000    0.0000 C.ar    1  UNL1        0.0753
      5 C           0.0000    0.0000    0.0000 C.ar    1  UNL1        0.0063
      6 C           0.0000    0.0000    0.0000 C.ar    1  UNL1        0.0004
      7 C           0.0000    0.0000    0.0000 C.ar    1  UNL1        0.0063
      8 C           0.0000    0.0000    0.0000 C.ar    1  UNL1        0.0753
      9 O           0.0000    0.0000    0.0000 O.co2   1  UNL1       -0.5760
@<TRIPOS>BOND
     1     1     2    2
     2     2     3    1
     3     3     4   ar
     4     4     5   ar
     5     5     6   ar
     6     6     7   ar
     7     7     8   ar
     8     3     8   ar
     9     2     9    1
#	Name: NoName

#	Program:	corina 4.4.0 0026  12.08.2021
