@<TRIPOS>MOLECULE
sf6
 7 6 0 0 0
SMALL
GASTEIGER

@<TRIPOS>ATOM
      1 F           0.0000    0.0000    0.0000 F       1  UNL1       -0.0722
      2 S           0.0000    0.0000    0.0000 S.3     1  UNL1        0.4335
      3 F           0.0000    0.0000    0.0000 F       1  UNL1       -0.0722
      4 F           0.0000    0.0000    0.0000 F       1  UNL1       -0.0722
      5 F           0.0000    0.0000    0.0000 F       1  UNL1       -0.0722
      6 F           0.0000    0.0000    0.0000 F       1  UNL1       -0.0722
      7 F           0.0000    0.0000    0.0000 F       1  UNL1       -0.0722
@<TRIPOS>BOND
     1     1     2    1
     2     2     3    1
     3     2     4    1
     4     2     5    1
     5     2     6    1
     6     2     7    1
#	Name: NoName

#	Program:	corina 4.4.0 0026  12.08.2021
