@<TRIPOS>MOLECULE
sf6
   7    6    0    0    0
SMALL
NO_CHARGES


@<TRIPOS>ATOM
   1 F1             0.0021    -0.0041     0.0020 F
   2 S2            -0.0198     1.6058     0.0109 S.oh
   3 F3            -0.0416     3.2156     0.0197 F
   4 F4             1.5900     1.6277    -0.0044 F
   5 F5            -1.6295     1.5838     0.0261 F
   6 F6            -0.0351     1.6144    -1.5990 F
   7 F7            -0.0044     1.5971     1.6208 F
@<TRIPOS>UNITY_ATOM_ATTR
2 1
charge 0
@<TRIPOS>BOND
   1    1    2 1
   2    2    3 1
   3    2    4 1
   4    2    5 1
   5    2    6 1
   6    2    7 1

#	End of record
