@<TRIPOS>MOLECULE
Z337709406
11 12 1 0 0
SMALL
AMBER ff14SB


@<TRIPOS>ATOM
      1 N          -0.9225    6.1660    2.9696 N.pl3     1 UNK0       -0.3375
      2 C          -0.8738    5.1881    2.0021 C.ar      1 UNK0        0.1550
      3 N          -0.8295    3.9080    2.2425 N.ar      1 UNK0       -0.2302
      4 C          -0.7861    3.0943    1.2197 C.ar      1 UNK0        0.0608
      5 C          -0.7219    1.5760    1.2745 C.3       1 UNK0       -0.0086
      6 C          -0.0127    1.0858    0.0080 C.3       1 UNK0       -0.0404
      7 C          -0.7443    1.5884   -1.2367 C.3       1 UNK0        0.0118
      8 C          -0.7689    3.1007   -1.2410 C.2       1 UNK0        0.1710
      9 O          -0.7601    3.7258   -2.2829 O.2       1 UNK0       -0.2935
     10 C          -0.8018    3.7604    0.0037 C.ar      1 UNK0        0.0796
     11 S          -0.8636    5.4845    0.3181 S.2       1 UNK0       -0.0491
@<TRIPOS>BOND
     1    1    2 1
     2    2    3 ar
     3    2   11 ar
     4    3    4 ar
     5    4    5 1
     6    4   10 ar
     7    5    6 1
     8    6    7 1
     9    7    8 1
    10    8    9 2
    11    8   10 1
    12   10   11 ar
@<TRIPOS>SUBSTRUCTURE
     1 UNK0        1 RESIDUE           4 A     UNK     0 ROOT
