@<TRIPOS>MOLECULE
Z337709406
19 20 1 0 0
SMALL
AMBER ff14SB


@<TRIPOS>ATOM
      1 N          -0.9225    6.1660    2.9696 N.pl3     1 UNK0       -0.3375
      2 C          -0.8738    5.1881    2.0021 C.ar      1 UNK0        0.1550
      3 N          -0.8295    3.9080    2.2425 N.ar      1 UNK0       -0.2302
      4 C          -0.7861    3.0943    1.2197 C.ar      1 UNK0        0.0608
      5 C          -0.7219    1.5760    1.2745 C.3       1 UNK0       -0.0086
      6 C          -0.0127    1.0858    0.0080 C.3       1 UNK0       -0.0404
      7 C          -0.7443    1.5884   -1.2367 C.3       1 UNK0        0.0118
      8 C          -0.7689    3.1007   -1.2410 C.2       1 UNK0        0.1710
      9 O          -0.7601    3.7258   -2.2829 O.2       1 UNK0       -0.2935
     10 C          -0.8018    3.7604    0.0037 C.ar      1 UNK0        0.0796
     11 S          -0.8636    5.4845    0.3181 S.2       1 UNK0       -0.0491
     12 HN1        -0.9255    5.9101    3.9466 H         1 UNK0        0.1447
     13 HN2        -0.9553    7.1395    2.7025 H         1 UNK0        0.1447
     14 HC2        -0.1637    1.2611    2.1562 H         1 UNK0        0.0333
     15 HC3        -1.7313    1.1664    1.3127 H         1 UNK0        0.0333
     16 HC4         0.0002   -0.0041    0.0020 H         1 UNK0        0.0275
     17 HC5         1.0114    1.4591    0.0002 H         1 UNK0        0.0275
     18 HC6        -0.2279    1.2325   -2.1282 H         1 UNK0        0.0351
     19 HC7        -1.7663    1.2093   -1.2342 H         1 UNK0        0.0351
@<TRIPOS>BOND
     1    1    2 1
     2    2    3 ar
     3    2   11 ar
     4    3    4 ar
     5    4    5 1
     6    4   10 ar
     7    5    6 1
     8    6    7 1
     9    7    8 1
    10    8    9 2
    11    8   10 1
    12   10   11 ar
    13   12    1 1
    14   13    1 1
    15   14    5 1
    16   15    5 1
    17   16    6 1
    18   17    6 1
    19   18    7 1
    20   19    7 1
@<TRIPOS>SUBSTRUCTURE
     1 UNK0        1 RESIDUE           4 A     UNK     0 ROOT
