@<TRIPOS>MOLECULE
Tropylium cation
   7    7    0    0    0
SMALL
NO_CHARGES


@<TRIPOS>ATOM
   1 C1            -0.0167     1.3835     0.0096 C.ar
   2 C2             1.0564     2.2634     0.0041 C.ar
   3 C3             2.4133     1.9731    -0.0095 C.ar
   4 C4             3.0323     0.7311    -0.0219 C.ar
   5 C5             2.4472    -0.5273    -0.0233 C.ar
   6 C6             1.0986    -0.8545    -0.0126 C.ar
   7 C7             0.0021    -0.0041     0.0020 C.ar
@<TRIPOS>BOND
   1    1    7 1
   2    1    2 2
   3    2    3 1
   4    3    4 2
   5    4    5 1
   6    5    6 2
   7    6    7 1
